%chk=c6h6.chk
# opt freq b3lyp/6-31g geom=connectivity

Title Card Required

0 1
 C                 -0.28475045   -0.91458176   -0.24195821
 C                  1.11040955   -0.91458176   -0.24195821
 C                  1.80794755    0.29316924   -0.24195821
 C                  1.11029355    1.50167824   -0.24315721
 C                 -0.28453145    1.50160024   -0.24363621
 C                 -0.98213245    0.29339424   -0.24264021
 H                 -0.83450945   -1.86689876   -0.24150821
 H                  1.65991755   -1.86709476   -0.24064321
 H                  2.90762755    0.29324924   -0.24132421
 H                  1.66049355    2.45382124   -0.24321621
 H                 -0.83465345    2.45388124   -0.24458921
 H                 -2.08173645    0.29357724   -0.24282021

 1 2 1.5 6 1.5 7 1.0
 2 3 1.5 8 1.0
 3 4 1.5 9 1.0
 4 5 1.5 10 1.0
 5 6 1.5 11 1.0
 6 12 1.0
 7
 8
 9
 10
 11
 12

